2
Coordinates from ORCA-job .\krkr E -5504.565912397514
  Kr      0.400000      0.000000      0.000000
  Kr      3.200000      0.000000      0.000000
2
Coordinates from ORCA-job .\krkr E -5504.565912374915
  Kr      0.400000      0.000000      0.000000
  Kr      3.200000      0.000000      0.000000
2
Coordinates from ORCA-job .\krkr E -5504.583637807604
  Kr     -0.180000      0.000000      0.000000
  Kr      2.980000      0.000000      0.000000
2
Coordinates from ORCA-job .\krkr E -5504.583637832447
  Kr     -0.180000      0.000000      0.000000
  Kr      2.980000      0.000000      0.000000
2
Coordinates from ORCA-job .\krkr E -5504.588408005189
  Kr     -0.180000      0.000000      0.000000
  Kr      3.340000      0.000000      0.000000
2
Coordinates from ORCA-job .\krkr E -5504.588408022139
  Kr     -0.180000      0.000000      0.000000
  Kr      3.340000      0.000000      0.000000
2
Coordinates from ORCA-job .\krkr E -5504.589311269890
  Kr     -0.180000      0.000000      0.000000
  Kr      3.700000      0.000000      0.000000
2
Coordinates from ORCA-job .\krkr E -5504.589311299425
  Kr     -0.180000      0.000000      0.000000
  Kr      3.700000      0.000000      0.000000
2
Coordinates from ORCA-job .\krkr E -5504.589196650982
  Kr     -0.180000      0.000000      0.000000
  Kr      4.060000      0.000000      0.000000
2
Coordinates from ORCA-job .\krkr E -5504.589196655525
  Kr     -0.180000      0.000000      0.000000
  Kr      4.060000      0.000000      0.000000
2
Coordinates from ORCA-job .\krkr E -5504.588919584610
  Kr     -0.180000      0.000000      0.000000
  Kr      4.420000      0.000000      0.000000
2
Coordinates from ORCA-job .\krkr E -5504.588919615052
  Kr     -0.180000      0.000000      0.000000
  Kr      4.420000      0.000000      0.000000
2
Coordinates from ORCA-job .\krkr E -5504.588694071883
  Kr     -0.180000      0.000000      0.000000
  Kr      4.780000      0.000000      0.000000
2
Coordinates from ORCA-job .\krkr E -5504.588694090410
  Kr     -0.180000      0.000000      0.000000
  Kr      4.780000      0.000000      0.000000
2
Coordinates from ORCA-job .\krkr E -5504.588542196423
  Kr     -0.180000      0.000000      0.000000
  Kr      5.140000      0.000000      0.000000
2
Coordinates from ORCA-job .\krkr E -5504.588542203619
  Kr     -0.180000      0.000000      0.000000
  Kr      5.140000      0.000000      0.000000
2
Coordinates from ORCA-job .\krkr E -5504.588442955919
  Kr     -0.180000      0.000000      0.000000
  Kr      5.500000      0.000000      0.000000
2
Coordinates from ORCA-job .\krkr E -5504.588442972831
  Kr     -0.180000      0.000000      0.000000
  Kr      5.500000      0.000000      0.000000
2
Coordinates from ORCA-job .\krkr E -5504.588376513846
  Kr     -0.180000      0.000000      0.000000
  Kr      5.860000      0.000000      0.000000
2
Coordinates from ORCA-job .\krkr E -5504.588376525324
  Kr     -0.180000      0.000000      0.000000
  Kr      5.860000      0.000000      0.000000
2
Coordinates from ORCA-job .\krkr E -5504.588330988647
  Kr     -0.180000      0.000000      0.000000
  Kr      6.220000      0.000000      0.000000
2
Coordinates from ORCA-job .\krkr E -5504.588330996640
  Kr     -0.180000      0.000000      0.000000
  Kr      6.220000      0.000000      0.000000
2
Coordinates from ORCA-job .\krkr E -5504.588299504692
  Kr     -0.180000      0.000000      0.000000
  Kr      6.580000      0.000000      0.000000
2
Coordinates from ORCA-job .\krkr E -5504.588299510973
  Kr     -0.180000      0.000000      0.000000
  Kr      6.580000      0.000000      0.000000
2
Coordinates from ORCA-job .\krkr E -5504.588277704564
  Kr     -0.180000      0.000000      0.000000
  Kr      6.940000      0.000000      0.000000
2
Coordinates from ORCA-job .\krkr E -5504.588277707961
  Kr     -0.180000      0.000000      0.000000
  Kr      6.940000      0.000000      0.000000
2
Coordinates from ORCA-job .\krkr E -5504.588262676725
  Kr     -0.180000      0.000000      0.000000
  Kr      7.300000      0.000000      0.000000
2
Coordinates from ORCA-job .\krkr E -5504.588262677347
  Kr     -0.180000      0.000000      0.000000
  Kr      7.300000      0.000000      0.000000
2
Coordinates from ORCA-job .\krkr E -5504.588252395351
  Kr     -0.180000      0.000000      0.000000
  Kr      7.660000      0.000000      0.000000
2
Coordinates from ORCA-job .\krkr E -5504.588252406225
  Kr     -0.180000      0.000000      0.000000
  Kr      7.660000      0.000000      0.000000
2
Coordinates from ORCA-job .\krkr E -5504.588245451495
  Kr     -0.180000      0.000000      0.000000
  Kr      8.020000      0.000000      0.000000
2
Coordinates from ORCA-job .\krkr E -5504.588245457129
  Kr     -0.180000      0.000000      0.000000
  Kr      8.020000      0.000000      0.000000
2
Coordinates from ORCA-job .\krkr E -5504.588240779929
  Kr     -0.180000      0.000000      0.000000
  Kr      8.380000      0.000000      0.000000
2
Coordinates from ORCA-job .\krkr E -5504.588240784286
  Kr     -0.180000      0.000000      0.000000
  Kr      8.380000      0.000000      0.000000
2
Coordinates from ORCA-job .\krkr E -5504.588237635797
  Kr     -0.180000      0.000000      0.000000
  Kr      8.740000      0.000000      0.000000
2
Coordinates from ORCA-job .\krkr E -5504.588237638885
  Kr     -0.180000      0.000000      0.000000
  Kr      8.740000      0.000000      0.000000
2
Coordinates from ORCA-job .\krkr E -5504.588235497728
  Kr     -0.180000      0.000000      0.000000
  Kr      9.100000      0.000000      0.000000
2
Coordinates from ORCA-job .\krkr E -5504.588235498983
  Kr     -0.180000      0.000000      0.000000
  Kr      9.100000      0.000000      0.000000
2
Coordinates from ORCA-job .\krkr E -5504.588234014092
  Kr     -0.180000      0.000000      0.000000
  Kr      9.460000      0.000000      0.000000
2
Coordinates from ORCA-job .\krkr E -5504.588234014219
  Kr     -0.180000      0.000000      0.000000
  Kr      9.460000      0.000000      0.000000
2
Coordinates from ORCA-job .\krkr E -5504.588232956391
  Kr     -0.180000      0.000000      0.000000
  Kr      9.820000      0.000000      0.000000
2
Coordinates from ORCA-job .\krkr E -5504.588232956435
  Kr     -0.180000      0.000000      0.000000
  Kr      9.820000      0.000000      0.000000
