2
Coordinates from ORCA-job .\krkr E -5504.565912397507
  Kr      0.400000      0.000000      0.000000
  Kr      3.200000      0.000000      0.000000
2
Coordinates from ORCA-job .\krkr E -5504.565912374917
  Kr      0.400000      0.000000      0.000000
  Kr      3.200000      0.000000      0.000000
2
Coordinates from ORCA-job .\krkr E -5504.571431161206
  Kr     -0.036364      0.000000      0.000000
  Kr      2.836364      0.000000      0.000000
2
Coordinates from ORCA-job .\krkr E -5504.571431187515
  Kr     -0.036364      0.000000      0.000000
  Kr      2.836364      0.000000      0.000000
2
Coordinates from ORCA-job .\krkr E -5504.575747988963
  Kr     -0.036364      0.000000      0.000000
  Kr      2.909091      0.000000      0.000000
2
Coordinates from ORCA-job .\krkr E -5504.575748007531
  Kr     -0.036364      0.000000      0.000000
  Kr      2.909091      0.000000      0.000000
2
Coordinates from ORCA-job .\krkr E -5504.579110206502
  Kr     -0.036364      0.000000      0.000000
  Kr      2.981818      0.000000      0.000000
2
Coordinates from ORCA-job .\krkr E -5504.579110220971
  Kr     -0.036364      0.000000      0.000000
  Kr      2.981818      0.000000      0.000000
2
Coordinates from ORCA-job .\krkr E -5504.581716596922
  Kr     -0.036364      0.000000      0.000000
  Kr      3.054545      0.000000      0.000000
2
Coordinates from ORCA-job .\krkr E -5504.581716608714
  Kr     -0.036364      0.000000      0.000000
  Kr      3.054545      0.000000      0.000000
2
Coordinates from ORCA-job .\krkr E -5504.583726205427
  Kr     -0.036364      0.000000      0.000000
  Kr      3.127273      0.000000      0.000000
2
Coordinates from ORCA-job .\krkr E -5504.583726215969
  Kr     -0.036364      0.000000      0.000000
  Kr      3.127273      0.000000      0.000000
2
Coordinates from ORCA-job .\krkr E -5504.585265792646
  Kr     -0.036364      0.000000      0.000000
  Kr      3.200000      0.000000      0.000000
2
Coordinates from ORCA-job .\krkr E -5504.585265803232
  Kr     -0.036364      0.000000      0.000000
  Kr      3.200000      0.000000      0.000000
2
Coordinates from ORCA-job .\krkr E -5504.586436062516
  Kr     -0.036364      0.000000      0.000000
  Kr      3.272727      0.000000      0.000000
2
Coordinates from ORCA-job .\krkr E -5504.586436071756
  Kr     -0.036364      0.000000      0.000000
  Kr      3.272727      0.000000      0.000000
2
Coordinates from ORCA-job .\krkr E -5504.587316812191
  Kr     -0.036364      0.000000      0.000000
  Kr      3.345455      0.000000      0.000000
2
Coordinates from ORCA-job .\krkr E -5504.587316820838
  Kr     -0.036364      0.000000      0.000000
  Kr      3.345455      0.000000      0.000000
2
Coordinates from ORCA-job .\krkr E -5504.587971177041
  Kr     -0.036364      0.000000      0.000000
  Kr      3.418182      0.000000      0.000000
2
Coordinates from ORCA-job .\krkr E -5504.587971184822
  Kr     -0.036364      0.000000      0.000000
  Kr      3.418182      0.000000      0.000000
2
Coordinates from ORCA-job .\krkr E -5504.588449040700
  Kr     -0.036364      0.000000      0.000000
  Kr      3.490909      0.000000      0.000000
2
Coordinates from ORCA-job .\krkr E -5504.588449070637
  Kr     -0.036364      0.000000      0.000000
  Kr      3.490909      0.000000      0.000000
2
Coordinates from ORCA-job .\krkr E -5504.588789870788
  Kr     -0.036364      0.000000      0.000000
  Kr      3.563636      0.000000      0.000000
2
Coordinates from ORCA-job .\krkr E -5504.588789898338
  Kr     -0.036364      0.000000      0.000000
  Kr      3.563636      0.000000      0.000000
2
Coordinates from ORCA-job .\krkr E -5504.589024805518
  Kr     -0.036364      0.000000      0.000000
  Kr      3.636364      0.000000      0.000000
2
Coordinates from ORCA-job .\krkr E -5504.589024831431
  Kr     -0.036364      0.000000      0.000000
  Kr      3.636364      0.000000      0.000000
2
Coordinates from ORCA-job .\krkr E -5504.589178465480
  Kr     -0.036364      0.000000      0.000000
  Kr      3.709091      0.000000      0.000000
2
Coordinates from ORCA-job .\krkr E -5504.589178489086
  Kr     -0.036364      0.000000      0.000000
  Kr      3.709091      0.000000      0.000000
2
Coordinates from ORCA-job .\krkr E -5504.589270294763
  Kr     -0.036364      0.000000      0.000000
  Kr      3.781818      0.000000      0.000000
2
Coordinates from ORCA-job .\krkr E -5504.589270314743
  Kr     -0.036364      0.000000      0.000000
  Kr      3.781818      0.000000      0.000000
2
Coordinates from ORCA-job .\krkr E -5504.589315627755
  Kr     -0.036364      0.000000      0.000000
  Kr      3.854545      0.000000      0.000000
2
Coordinates from ORCA-job .\krkr E -5504.589315643920
  Kr     -0.036364      0.000000      0.000000
  Kr      3.854545      0.000000      0.000000
2
Coordinates from ORCA-job .\krkr E -5504.589326673845
  Kr     -0.036364      0.000000      0.000000
  Kr      3.927273      0.000000      0.000000
2
Coordinates from ORCA-job .\krkr E -5504.589326555529
  Kr     -0.036364      0.000000      0.000000
  Kr      3.927273      0.000000      0.000000
2
Coordinates from ORCA-job .\krkr E -5504.589312571555
  Kr     -0.036364      0.000000      0.000000
  Kr      4.000000      0.000000      0.000000
2
Coordinates from ORCA-job .\krkr E -5504.589312473359
  Kr     -0.036364      0.000000      0.000000
  Kr      4.000000      0.000000      0.000000
2
Coordinates from ORCA-job .\krkr E -5504.589280859191
  Kr     -0.036364      0.000000      0.000000
  Kr      4.072727      0.000000      0.000000
2
Coordinates from ORCA-job .\krkr E -5504.589280778392
  Kr     -0.036364      0.000000      0.000000
  Kr      4.072727      0.000000      0.000000
2
Coordinates from ORCA-job .\krkr E -5504.589237232148
  Kr     -0.036364      0.000000      0.000000
  Kr      4.145455      0.000000      0.000000
2
Coordinates from ORCA-job .\krkr E -5504.589237165981
  Kr     -0.036364      0.000000      0.000000
  Kr      4.145455      0.000000      0.000000
2
Coordinates from ORCA-job .\krkr E -5504.589186050473
  Kr     -0.036364      0.000000      0.000000
  Kr      4.218182      0.000000      0.000000
2
Coordinates from ORCA-job .\krkr E -5504.589185997063
  Kr     -0.036364      0.000000      0.000000
  Kr      4.218182      0.000000      0.000000
2
Coordinates from ORCA-job .\krkr E -5504.589130614155
  Kr     -0.036364      0.000000      0.000000
  Kr      4.290909      0.000000      0.000000
2
Coordinates from ORCA-job .\krkr E -5504.589130571208
  Kr     -0.036364      0.000000      0.000000
  Kr      4.290909      0.000000      0.000000
2
Coordinates from ORCA-job .\krkr E -5504.589073381921
  Kr     -0.036364      0.000000      0.000000
  Kr      4.363636      0.000000      0.000000
2
Coordinates from ORCA-job .\krkr E -5504.589073348101
  Kr     -0.036364      0.000000      0.000000
  Kr      4.363636      0.000000      0.000000
2
Coordinates from ORCA-job .\krkr E -5504.589016153407
  Kr     -0.036364      0.000000      0.000000
  Kr      4.436364      0.000000      0.000000
2
Coordinates from ORCA-job .\krkr E -5504.589016126047
  Kr     -0.036364      0.000000      0.000000
  Kr      4.436364      0.000000      0.000000
2
Coordinates from ORCA-job .\krkr E -5504.588960208002
  Kr     -0.036364      0.000000      0.000000
  Kr      4.509091      0.000000      0.000000
2
Coordinates from ORCA-job .\krkr E -5504.588960187139
  Kr     -0.036364      0.000000      0.000000
  Kr      4.509091      0.000000      0.000000
2
Coordinates from ORCA-job .\krkr E -5504.588906427726
  Kr     -0.036364      0.000000      0.000000
  Kr      4.581818      0.000000      0.000000
2
Coordinates from ORCA-job .\krkr E -5504.588906412372
  Kr     -0.036364      0.000000      0.000000
  Kr      4.581818      0.000000      0.000000
2
Coordinates from ORCA-job .\krkr E -5504.588855385160
  Kr     -0.036364      0.000000      0.000000
  Kr      4.654545      0.000000      0.000000
2
Coordinates from ORCA-job .\krkr E -5504.588855374153
  Kr     -0.036364      0.000000      0.000000
  Kr      4.654545      0.000000      0.000000
2
Coordinates from ORCA-job .\krkr E -5504.588807417699
  Kr     -0.036364      0.000000      0.000000
  Kr      4.727273      0.000000      0.000000
2
Coordinates from ORCA-job .\krkr E -5504.588807409854
  Kr     -0.036364      0.000000      0.000000
  Kr      4.727273      0.000000      0.000000
2
Coordinates from ORCA-job .\krkr E -5504.588762684244
  Kr     -0.036364      0.000000      0.000000
  Kr      4.800000      0.000000      0.000000
2
Coordinates from ORCA-job .\krkr E -5504.588762679127
  Kr     -0.036364      0.000000      0.000000
  Kr      4.800000      0.000000      0.000000
2
Coordinates from ORCA-job .\krkr E -5504.588721214495
  Kr     -0.036364      0.000000      0.000000
  Kr      4.872727      0.000000      0.000000
2
Coordinates from ORCA-job .\krkr E -5504.588721211646
  Kr     -0.036364      0.000000      0.000000
  Kr      4.872727      0.000000      0.000000
2
Coordinates from ORCA-job .\krkr E -5504.588682920119
  Kr     -0.036364      0.000000      0.000000
  Kr      4.945455      0.000000      0.000000
2
Coordinates from ORCA-job .\krkr E -5504.588682937913
  Kr     -0.036364      0.000000      0.000000
  Kr      4.945455      0.000000      0.000000
2
Coordinates from ORCA-job .\krkr E -5504.588647715885
  Kr     -0.036364      0.000000      0.000000
  Kr      5.018182      0.000000      0.000000
2
Coordinates from ORCA-job .\krkr E -5504.588647730609
  Kr     -0.036364      0.000000      0.000000
  Kr      5.018182      0.000000      0.000000
2
Coordinates from ORCA-job .\krkr E -5504.588615399043
  Kr     -0.036364      0.000000      0.000000
  Kr      5.090909      0.000000      0.000000
2
Coordinates from ORCA-job .\krkr E -5504.588615411577
  Kr     -0.036364      0.000000      0.000000
  Kr      5.090909      0.000000      0.000000
2
Coordinates from ORCA-job .\krkr E -5504.588585779320
  Kr     -0.036364      0.000000      0.000000
  Kr      5.163636      0.000000      0.000000
2
Coordinates from ORCA-job .\krkr E -5504.588585781143
  Kr     -0.036364      0.000000      0.000000
  Kr      5.163636      0.000000      0.000000
2
Coordinates from ORCA-job .\krkr E -5504.588558625142
  Kr     -0.036364      0.000000      0.000000
  Kr      5.236364      0.000000      0.000000
2
Coordinates from ORCA-job .\krkr E -5504.588558626506
  Kr     -0.036364      0.000000      0.000000
  Kr      5.236364      0.000000      0.000000
2
Coordinates from ORCA-job .\krkr E -5504.588533735562
  Kr     -0.036364      0.000000      0.000000
  Kr      5.309091      0.000000      0.000000
2
Coordinates from ORCA-job .\krkr E -5504.588533737011
  Kr     -0.036364      0.000000      0.000000
  Kr      5.309091      0.000000      0.000000
2
Coordinates from ORCA-job .\krkr E -5504.588510899914
  Kr     -0.036364      0.000000      0.000000
  Kr      5.381818      0.000000      0.000000
2
Coordinates from ORCA-job .\krkr E -5504.588510908463
  Kr     -0.036364      0.000000      0.000000
  Kr      5.381818      0.000000      0.000000
2
Coordinates from ORCA-job .\krkr E -5504.588489940063
  Kr     -0.036364      0.000000      0.000000
  Kr      5.454545      0.000000      0.000000
2
Coordinates from ORCA-job .\krkr E -5504.588489948258
  Kr     -0.036364      0.000000      0.000000
  Kr      5.454545      0.000000      0.000000
2
Coordinates from ORCA-job .\krkr E -5504.588470672109
  Kr     -0.036364      0.000000      0.000000
  Kr      5.527273      0.000000      0.000000
2
Coordinates from ORCA-job .\krkr E -5504.588470679791
  Kr     -0.036364      0.000000      0.000000
  Kr      5.527273      0.000000      0.000000
2
Coordinates from ORCA-job .\krkr E -5504.588452935230
  Kr     -0.036364      0.000000      0.000000
  Kr      5.600000      0.000000      0.000000
2
Coordinates from ORCA-job .\krkr E -5504.588452942407
  Kr     -0.036364      0.000000      0.000000
  Kr      5.600000      0.000000      0.000000
2
Coordinates from ORCA-job .\krkr E -5504.588436585732
  Kr     -0.036364      0.000000      0.000000
  Kr      5.672727      0.000000      0.000000
2
Coordinates from ORCA-job .\krkr E -5504.588436592040
  Kr     -0.036364      0.000000      0.000000
  Kr      5.672727      0.000000      0.000000
2
Coordinates from ORCA-job .\krkr E -5504.588421495182
  Kr     -0.036364      0.000000      0.000000
  Kr      5.745455      0.000000      0.000000
2
Coordinates from ORCA-job .\krkr E -5504.588421501266
  Kr     -0.036364      0.000000      0.000000
  Kr      5.745455      0.000000      0.000000
2
Coordinates from ORCA-job .\krkr E -5504.588407550772
  Kr     -0.036364      0.000000      0.000000
  Kr      5.818182      0.000000      0.000000
2
Coordinates from ORCA-job .\krkr E -5504.588407556510
  Kr     -0.036364      0.000000      0.000000
  Kr      5.818182      0.000000      0.000000
